ligand
     RDKit          3D

164171  0  0  1  0  0  0  0  0999 V2000
  -32.3235  -19.7586   11.0397 C   0  0  0  0  0  0  0  0  0  0  0  0
  -29.7619  -21.6326   12.4919 C   0  0  0  0  0  0  0  0  0  0  0  0
  -31.1092  -23.7008   15.1932 C   0  0  0  0  0  0  0  0  0  0  0  0
  -28.7185  -24.2475   18.4941 C   0  0  0  0  0  0  0  0  0  0  0  0
  -28.8821  -26.7168   20.1247 C   0  0  0  0  0  0  0  0  0  0  0  0
  -29.6633  -24.5143   17.3754 C   0  0  0  0  0  0  0  0  0  0  0  0
  -29.9192  -25.6482   19.8957 C   0  0  0  0  0  0  0  0  0  0  0  0
  -24.6050  -31.7948   23.2485 C   0  0  0  0  0  0  0  0  0  0  0  0
  -25.8790  -32.2435   24.0890 C   0  0  1  0  0  0  0  0  0  0  0  0
  -26.9444  -27.7981   19.2649 C   0  0  0  0  0  0  0  0  0  0  0  0
  -25.6481  -33.6935   24.3651 N   0  0  0  0  0  0  0  0  0  0  0  0
  -23.5286  -30.8194   21.2822 C   0  0  2  0  0  0  0  0  0  0  0  0
  -24.9450  -29.7300   19.5319 C   0  0  0  0  0  0  0  0  0  0  0  0
  -22.6483  -29.6452   21.7287 C   0  0  0  0  0  0  0  0  0  0  0  0
  -19.0177  -27.8267   23.1805 C   0  0  0  0  0  0  0  0  0  0  0  0
  -24.0631  -36.4851   23.3366 C   0  0  0  0  0  0  0  0  0  0  0  0
  -26.0546  -30.7143   21.5753 C   0  0  0  0  0  0  0  0  0  0  0  0
  -25.9976  -29.6775   20.4636 C   0  0  0  0  0  0  0  0  0  0  0  0
  -26.9875  -28.7052   20.3161 C   0  0  0  0  0  0  0  0  0  0  0  0
  -25.9082  -27.8525   18.3414 C   0  0  0  0  0  0  0  0  0  0  0  0
  -24.9008  -28.8225   18.4744 C   0  0  0  0  0  0  0  0  0  0  0  0
  -23.8460  -30.7633   19.7450 C   0  0  0  0  0  0  0  0  0  0  0  0
  -25.4591  -36.0767   23.8956 C   0  0  1  0  0  0  0  0  0  0  0  0
  -21.4572  -28.5634   23.6591 C   0  0  2  0  0  0  0  0  0  0  0  0
  -21.8435  -27.0808   23.4407 C   0  0  0  0  0  0  0  0  0  0  0  0
  -20.9653  -26.3317   22.4755 C   0  0  0  0  0  0  0  0  0  0  0  0
  -19.4753  -26.4121   22.8390 C   0  0  0  0  0  0  0  0  0  0  0  0
  -19.9314  -28.8452   23.5543 C   0  0  0  0  0  0  0  0  0  0  0  0
  -19.4127  -30.1027   23.8536 C   0  0  0  0  0  0  0  0  0  0  0  0
  -18.0433  -30.3871   23.7999 C   0  0  0  0  0  0  0  0  0  0  0  0
  -25.7867  -34.6505   23.4129 C   0  0  0  0  0  0  0  0  0  0  0  0
  -17.1509  -29.3892   23.4332 C   0  0  0  0  0  0  0  0  0  0  0  0
  -17.6409  -28.1221   23.1264 C   0  0  0  0  0  0  0  0  0  0  0  0
  -30.1251  -24.7832   15.2432 C   0  0  0  0  0  0  0  0  0  0  0  0
  -30.2501  -22.7546   13.3265 C   0  0  0  0  0  0  0  0  0  0  0  0
  -30.6243  -22.6087   10.5796 C   0  0  0  0  0  0  0  0  0  0  0  0
  -31.8086  -21.9370   10.0847 C   0  0  0  0  0  0  0  0  0  0  0  0
  -34.1138  -18.9522   12.6629 C   0  0  0  0  0  0  0  0  0  0  0  0
  -34.1760  -17.8247   13.6770 C   0  0  0  0  0  0  0  0  0  0  0  0
  -34.2669  -16.4521   13.0147 C   0  0  0  0  0  0  0  0  0  0  0  0
  -33.9715  -16.6592   11.5722 C   0  0  2  0  0  0  0  0  0  0  0  0
  -32.6190  -17.3857   11.5201 C   0  0  0  0  0  0  0  0  0  0  0  0
  -32.9390  -14.6885   10.4863 C   0  0  0  0  0  0  0  0  0  0  0  0
  -33.4161  -13.7363    9.5555 C   0  0  0  0  0  0  0  0  0  0  0  0
  -34.7242  -14.0379    9.3009 C   0  0  0  0  0  0  0  0  0  0  0  0
  -35.6738  -13.3670    8.4113 C   0  0  0  0  0  0  0  0  0  0  0  0
  -35.9178  -12.0343    8.4170 C   0  0  0  0  0  0  0  0  0  0  0  0
  -36.8423  -11.4631    7.5327 C   0  0  0  0  0  0  0  0  0  0  0  0
  -37.5250  -12.2708    6.6348 C   0  0  0  0  0  0  0  0  0  0  0  0
  -37.2777  -13.6234    6.6316 C   0  0  0  0  0  0  0  0  0  0  0  0
  -36.3592  -14.1526    7.5142 C   0  0  0  0  0  0  0  0  0  0  0  0
  -38.2141  -11.5300    4.4020 C   0  0  0  0  0  0  0  0  0  0  0  0
  -39.1093  -12.1337    3.5330 C   0  0  0  0  0  0  0  0  0  0  0  0
  -38.9721  -12.0202    2.1575 C   0  0  0  0  0  0  0  0  0  0  0  0
  -37.9226  -11.2904    1.6564 C   0  0  0  0  0  0  0  0  0  0  0  0
  -37.0138  -10.6791    2.5184 C   0  0  0  0  0  0  0  0  0  0  0  0
  -37.1577  -10.7968    3.8858 C   0  0  0  0  0  0  0  0  0  0  0  0
  -32.5799  -12.6760    8.9839 C   0  0  0  0  0  0  0  0  0  0  0  0
  -26.2124  -31.3912   25.3356 C   0  0  0  0  0  0  0  0  0  0  0  0
  -26.5845  -29.9318   25.0151 C   0  0  0  0  0  0  0  0  0  0  0  0
  -27.3550  -32.0307   26.1529 C   0  0  0  0  0  0  0  0  0  0  0  0
  -24.9709  -31.2958   26.3059 C   0  0  0  0  0  0  0  0  0  0  0  0
  -27.7569  -36.9586   24.0965 C   0  0  0  0  0  0  0  0  0  0  0  0
  -36.2883  -10.2135    4.7167 F   0  0  0  0  0  0  0  0  0  0  0  0
  -37.7875  -11.1690    0.2937 F   0  0  0  0  0  0  0  0  0  0  0  0
  -22.3092  -29.5588   23.0021 N   0  0  0  0  0  0  0  0  0  0  0  0
  -33.0083  -18.7996   11.7720 N   0  0  0  0  0  0  0  0  0  0  0  0
  -33.9586  -15.4972   10.7318 N   0  0  0  0  0  0  0  0  0  0  0  0
  -35.0300  -15.1343   10.0437 N   0  0  0  0  0  0  0  0  0  0  0  0
  -33.0817  -11.7663    8.0357 N   0  0  0  0  0  0  0  0  0  0  0  0
  -31.6193  -14.7047   11.0199 N   0  0  0  0  0  0  0  0  0  0  0  0
  -26.4728  -37.0389   23.3865 N   0  0  0  0  0  0  0  0  0  0  0  0
  -24.7250  -31.1104   22.0894 N   0  0  0  0  0  0  0  0  0  0  0  0
  -22.2742  -28.8172   20.8730 O   0  0  0  0  0  0  0  0  0  0  0  0
  -27.9066  -26.8339   19.1327 O   0  0  0  0  0  0  0  0  0  0  0  0
  -29.3976  -24.3680   19.7287 O   0  0  0  0  0  0  0  0  0  0  0  0
  -29.0539  -24.4353   16.1310 O   0  0  0  0  0  0  0  0  0  0  0  0
  -26.1372  -34.4245   22.2560 O   0  0  0  0  0  0  0  0  0  0  0  0
  -30.5142  -22.4919   14.6625 O   0  0  0  0  0  0  0  0  0  0  0  0
  -29.5581  -22.0559   11.1656 O   0  0  0  0  0  0  0  0  0  0  0  0
  -32.6067  -21.1062   10.8493 O   0  0  0  0  0  0  0  0  0  0  0  0
  -31.2551  -19.3913   10.4100 O   0  0  0  0  0  0  0  0  0  0  0  0
  -38.4512  -11.7121    5.7409 O   0  0  0  0  0  0  0  0  0  0  0  0
  -31.3750  -12.6113    9.3777 O   0  0  0  0  0  0  0  0  0  0  0  0
  -23.5282  -32.1440   23.7369 O   0  0  0  0  0  0  0  0  0  0  0  0
  -30.3043  -20.7260   12.6381 H   0  0  0  0  0  0  0  0  0  0  0  0
  -28.6928  -21.4242   12.8248 H   0  0  0  0  0  0  0  0  0  0  0  0
  -31.7035  -23.4368   16.0441 H   0  0  0  0  0  0  0  0  0  0  0  0
  -31.8464  -23.9802   14.3429 H   0  0  0  0  0  0  0  0  0  0  0  0
  -27.7918  -24.7510   18.3925 H   0  0  0  0  0  0  0  0  0  0  0  0
  -28.4912  -23.1351   18.4364 H   0  0  0  0  0  0  0  0  0  0  0  0
  -29.3829  -27.7123   20.3261 H   0  0  0  0  0  0  0  0  0  0  0  0
  -28.4098  -26.5012   21.1379 H   0  0  0  0  0  0  0  0  0  0  0  0
  -30.0623  -25.5696   17.3973 H   0  0  0  0  0  0  0  0  0  0  0  0
  -30.5543  -23.8716   17.4186 H   0  0  0  0  0  0  0  0  0  0  0  0
  -30.5194  -25.5350   20.8728 H   0  0  0  0  0  0  0  0  0  0  0  0
  -30.7097  -25.9176   19.1784 H   0  0  0  0  0  0  0  0  0  0  0  0
  -26.7097  -32.1183   23.3996 H   0  0  0  0  0  0  0  0  0  0  0  0
  -25.3767  -33.8937   25.3465 H   0  0  0  0  0  0  0  0  0  0  0  0
  -22.8679  -31.7413   21.3225 H   0  0  0  0  0  0  0  0  0  0  0  0
  -24.0598  -37.5734   23.3824 H   0  0  0  0  0  0  0  0  0  0  0  0
  -23.9888  -36.1232   22.3099 H   0  0  0  0  0  0  0  0  0  0  0  0
  -23.3492  -35.9907   24.0225 H   0  0  0  0  0  0  0  0  0  0  0  0
  -26.4784  -31.6320   21.0758 H   0  0  0  0  0  0  0  0  0  0  0  0
  -26.7546  -30.3608   22.2746 H   0  0  0  0  0  0  0  0  0  0  0  0
  -27.7827  -28.6976   21.0669 H   0  0  0  0  0  0  0  0  0  0  0  0
  -25.8261  -27.1877   17.5182 H   0  0  0  0  0  0  0  0  0  0  0  0
  -24.0851  -28.8750   17.7682 H   0  0  0  0  0  0  0  0  0  0  0  0
  -24.1985  -31.7588   19.5140 H   0  0  0  0  0  0  0  0  0  0  0  0
  -22.9028  -30.4377   19.3142 H   0  0  0  0  0  0  0  0  0  0  0  0
  -25.4799  -36.1529   24.9720 H   0  0  0  0  0  0  0  0  0  0  0  0
  -21.6132  -28.6584   24.7785 H   0  0  0  0  0  0  0  0  0  0  0  0
  -22.8378  -27.1655   22.9269 H   0  0  0  0  0  0  0  0  0  0  0  0
  -22.0118  -26.5314   24.3615 H   0  0  0  0  0  0  0  0  0  0  0  0
  -21.2073  -25.2438   22.7129 H   0  0  0  0  0  0  0  0  0  0  0  0
  -21.1657  -26.4202   21.4301 H   0  0  0  0  0  0  0  0  0  0  0  0
  -18.9481  -26.0828   21.8935 H   0  0  0  0  0  0  0  0  0  0  0  0
  -19.1991  -25.6996   23.6248 H   0  0  0  0  0  0  0  0  0  0  0  0
  -20.0967  -30.8717   24.1335 H   0  0  0  0  0  0  0  0  0  0  0  0
  -17.7302  -31.3663   24.0402 H   0  0  0  0  0  0  0  0  0  0  0  0
  -16.1038  -29.5534   23.3718 H   0  0  0  0  0  0  0  0  0  0  0  0
  -17.0170  -27.3083   22.8307 H   0  0  0  0  0  0  0  0  0  0  0  0
  -30.6668  -25.6680   15.7606 H   0  0  0  0  0  0  0  0  0  0  0  0
  -29.7568  -25.1893   14.3088 H   0  0  0  0  0  0  0  0  0  0  0  0
  -31.1858  -23.2319   12.9466 H   0  0  0  0  0  0  0  0  0  0  0  0
  -29.4925  -23.6028   13.3299 H   0  0  0  0  0  0  0  0  0  0  0  0
  -30.9062  -23.6248   11.0604 H   0  0  0  0  0  0  0  0  0  0  0  0
  -30.1538  -23.0795    9.6011 H   0  0  0  0  0  0  0  0  0  0  0  0
  -31.6102  -21.3492    9.1055 H   0  0  0  0  0  0  0  0  0  0  0  0
  -32.5335  -22.7303    9.6685 H   0  0  0  0  0  0  0  0  0  0  0  0
  -35.0988  -19.0649   12.1972 H   0  0  0  0  0  0  0  0  0  0  0  0
  -33.9760  -19.9010   13.2737 H   0  0  0  0  0  0  0  0  0  0  0  0
  -35.0379  -17.9994   14.3387 H   0  0  0  0  0  0  0  0  0  0  0  0
  -33.2237  -17.9038   14.2537 H   0  0  0  0  0  0  0  0  0  0  0  0
  -33.5333  -15.7998   13.5365 H   0  0  0  0  0  0  0  0  0  0  0  0
  -35.2874  -16.0868   13.1543 H   0  0  0  0  0  0  0  0  0  0  0  0
  -34.7216  -17.4026   11.1912 H   0  0  0  0  0  0  0  0  0  0  0  0
  -32.0308  -17.0403   12.3786 H   0  0  0  0  0  0  0  0  0  0  0  0
  -32.1597  -17.2936   10.5344 H   0  0  0  0  0  0  0  0  0  0  0  0
  -35.4297  -11.3436    9.1296 H   0  0  0  0  0  0  0  0  0  0  0  0
  -37.0336  -10.3989    7.5380 H   0  0  0  0  0  0  0  0  0  0  0  0
  -37.8207  -14.2671    5.9192 H   0  0  0  0  0  0  0  0  0  0  0  0
  -36.2045  -15.2405    7.4593 H   0  0  0  0  0  0  0  0  0  0  0  0
  -39.9454  -12.7124    3.9191 H   0  0  0  0  0  0  0  0  0  0  0  0
  -39.7109  -12.5170    1.5472 H   0  0  0  0  0  0  0  0  0  0  0  0
  -36.2126  -10.1215    2.0609 H   0  0  0  0  0  0  0  0  0  0  0  0
  -26.5521  -29.4326   26.0023 H   0  0  0  0  0  0  0  0  0  0  0  0
  -27.5552  -29.8845   24.5287 H   0  0  0  0  0  0  0  0  0  0  0  0
  -25.7527  -29.5208   24.4204 H   0  0  0  0  0  0  0  0  0  0  0  0
  -27.0319  -32.1521   27.2133 H   0  0  0  0  0  0  0  0  0  0  0  0
  -28.2430  -31.3873   26.1306 H   0  0  0  0  0  0  0  0  0  0  0  0
  -27.6131  -33.0203   25.6987 H   0  0  0  0  0  0  0  0  0  0  0  0
  -25.4160  -31.0739   27.2800 H   0  0  0  0  0  0  0  0  0  0  0  0
  -24.4384  -32.2471   26.2560 H   0  0  0  0  0  0  0  0  0  0  0  0
  -24.4115  -30.4236   25.9435 H   0  0  0  0  0  0  0  0  0  0  0  0
  -28.5816  -36.9428   23.3752 H   0  0  0  0  0  0  0  0  0  0  0  0
  -27.8723  -37.8709   24.7089 H   0  0  0  0  0  0  0  0  0  0  0  0
  -27.7267  -36.0382   24.6908 H   0  0  0  0  0  0  0  0  0  0  0  0
  -22.6201  -30.1827   23.7166 H   0  0  0  0  0  0  0  0  0  0  0  0
  -33.3840  -12.1021    7.1088 H   0  0  0  0  0  0  0  0  0  0  0  0
  -33.1484  -10.7640    8.2677 H   0  0  0  0  0  0  0  0  0  0  0  0
  -31.3591  -14.1108   11.8480 H   0  0  0  0  0  0  0  0  0  0  0  0
  -30.8770  -15.3047   10.6060 H   0  0  0  0  0  0  0  0  0  0  0  0
  -26.0246  -37.9589   23.4978 H   0  0  0  0  0  0  0  0  0  0  0  0
  1 67  1  0
  1 81  1  0
  1 82  2  0
  2 35  1  0
  2 80  1  0
  3 34  1  0
  3 79  1  0
  4  6  1  0
  4 76  1  0
  5  7  1  0
  5 75  1  0
  6 77  1  0
  7 76  1  0
  8  9  1  0
  8 73  1  0
  8 85  2  0
  9 11  1  0
  9 59  1  0
 10 19  2  0
 10 20  1  0
 10 75  1  0
 11 31  1  0
 12 14  1  0
 12 22  1  0
 12 73  1  0
 13 18  2  0
 13 21  1  0
 13 22  1  0
 14 66  1  0
 14 74  2  0
 15 27  1  0
 15 28  2  0
 15 33  1  0
 16 23  1  0
 17 18  1  0
 17 73  1  0
 18 19  1  0
 20 21  2  0
 23 31  1  0
 23 72  1  0
 24 25  1  0
 24 28  1  0
 24 66  1  0
 25 26  1  0
 26 27  1  0
 28 29  1  0
 29 30  2  0
 30 32  1  0
 31 78  2  0
 32 33  2  0
 34 77  1  0
 35 79  1  0
 36 37  1  0
 36 80  1  0
 37 81  1  0
 38 39  1  0
 38 67  1  0
 39 40  1  0
 40 41  1  0
 41 42  1  0
 41 68  1  0
 42 67  1  0
 43 44  2  0
 43 68  1  0
 43 71  1  0
 44 45  1  0
 44 58  1  0
 45 46  1  0
 45 69  2  0
 46 47  2  0
 46 51  1  0
 47 48  1  0
 48 49  2  0
 49 50  1  0
 49 83  1  0
 50 51  2  0
 52 53  2  0
 52 57  1  0
 52 83  1  0
 53 54  1  0
 54 55  2  0
 55 56  1  0
 55 65  1  0
 56 57  2  0
 57 64  1  0
 58 70  1  0
 58 84  2  0
 59 60  1  0
 59 61  1  0
 59 62  1  0
 63 72  1  0
 68 69  1  0
  2 86  1  0
  2 87  1  0
  3 88  1  0
  3 89  1  0
  4 90  1  0
  4 91  1  0
  5 92  1  0
  5 93  1  0
  6 94  1  0
  6 95  1  0
  7 96  1  0
  7 97  1  0
  9 98  1  6
 11 99  1  0
 12100  1  6
 16101  1  0
 16102  1  0
 16103  1  0
 17104  1  0
 17105  1  0
 19106  1  0
 20107  1  0
 21108  1  0
 22109  1  0
 22110  1  0
 23111  1  1
 24112  1  1
 25113  1  0
 25114  1  0
 26115  1  0
 26116  1  0
 27117  1  0
 27118  1  0
 29119  1  0
 30120  1  0
 32121  1  0
 33122  1  0
 34123  1  0
 34124  1  0
 35125  1  0
 35126  1  0
 36127  1  0
 36128  1  0
 37129  1  0
 37130  1  0
 38131  1  0
 38132  1  0
 39133  1  0
 39134  1  0
 40135  1  0
 40136  1  0
 41137  1  6
 42138  1  0
 42139  1  0
 47140  1  0
 48141  1  0
 50142  1  0
 51143  1  0
 53144  1  0
 54145  1  0
 56146  1  0
 60147  1  0
 60148  1  0
 60149  1  0
 61150  1  0
 61151  1  0
 61152  1  0
 62153  1  0
 62154  1  0
 62155  1  0
 63156  1  0
 63157  1  0
 63158  1  0
 66159  1  0
 70160  1  0
 70161  1  0
 71162  1  0
 71163  1  0
 72164  1  0
M  END
$$$$
