ligand
     RDKit          3D

 85 92  0  0  1  0  0  0  0  0999 V2000
   -3.7322   -6.2125   -7.5038 C   0  0  0  0  0  0  0  0  0  0  0  0
   -2.2193   -3.1992   -3.1584 C   0  0  0  0  0  0  0  0  0  0  0  0
    0.9162   -2.4319   -1.3325 C   0  0  0  0  0  0  0  0  0  0  0  0
   -0.8959    1.3577    0.3527 C   0  0  0  0  0  0  0  0  0  0  0  0
   -0.2044    3.9956   -2.1688 C   0  0  0  0  0  0  0  0  0  0  0  0
   -0.6773   -0.1543    0.2192 C   0  0  0  0  0  0  0  0  0  0  0  0
   -0.7071    3.4059   -0.8460 C   0  0  0  0  0  0  0  0  0  0  0  0
    3.8172    5.4138   -7.8474 C   0  0  0  0  0  0  0  0  0  0  0  0
    4.6793    6.1639   -6.7922 C   0  0  1  0  0  0  0  0  0  0  0  0
   -0.6921    3.8725   -4.5380 C   0  0  0  0  0  0  0  0  0  0  0  0
    4.9150    5.2143   -5.6993 N   0  0  0  0  0  0  0  0  0  0  0  0
    1.6308    4.8773   -8.9133 C   0  0  2  0  0  0  0  0  0  0  0  0
   -0.2120    4.5301   -7.2349 C   0  0  0  0  0  0  0  0  0  0  0  0
    1.8954    5.5663  -10.2729 C   0  0  0  0  0  0  0  0  0  0  0  0
    4.2839    4.8843  -14.3829 C   0  0  0  0  0  0  0  0  0  0  0  0
    3.6834    3.7255   -2.8515 C   0  0  0  0  0  0  0  0  0  0  0  0
    1.7246    6.0159   -6.6328 C   0  0  0  0  0  0  0  0  0  0  0  0
    0.5930    5.0800   -6.2273 C   0  0  0  0  0  0  0  0  0  0  0  0
    0.3502    4.7445   -4.8917 C   0  0  0  0  0  0  0  0  0  0  0  0
   -1.4877    3.3396   -5.5516 C   0  0  0  0  0  0  0  0  0  0  0  0
   -1.2510    3.6642   -6.8853 C   0  0  0  0  0  0  0  0  0  0  0  0
    0.0891    4.9087   -8.6780 C   0  0  0  0  0  0  0  0  0  0  0  0
    5.0011    4.2758   -3.4382 C   0  0  1  0  0  0  0  0  0  0  0  0
    2.3352    5.1509  -12.7048 C   0  0  2  0  0  0  0  0  0  0  0  0
    1.5109    4.3469  -13.7311 C   0  0  0  0  0  0  0  0  0  0  0  0
    1.8498    4.7571  -15.1653 C   0  0  0  0  0  0  0  0  0  0  0  0
    3.3181    4.4407  -15.4834 C   0  0  0  0  0  0  0  0  0  0  0  0
    3.8354    5.2089  -13.0760 C   0  0  0  0  0  0  0  0  0  0  0  0
    4.7977    5.5869  -12.1248 C   0  0  0  0  0  0  0  0  0  0  0  0
    6.1534    5.6443  -12.4299 C   0  0  0  0  0  0  0  0  0  0  0  0
    4.6937    5.4484   -4.3943 C   0  0  0  0  0  0  0  0  0  0  0  0
    6.5834    5.3208  -13.7092 C   0  0  0  0  0  0  0  0  0  0  0  0
    5.6530    4.9446  -14.6720 C   0  0  0  0  0  0  0  0  0  0  0  0
    1.0775   -1.8003    0.0618 C   0  0  0  0  0  0  0  0  0  0  0  0
   -0.7057   -3.1703   -2.9158 C   0  0  0  0  0  0  0  0  0  0  0  0
   -3.8480   -3.6274   -4.8392 C   0  0  0  0  0  0  0  0  0  0  0  0
   -4.0070   -4.1454   -6.2734 C   0  0  0  0  0  0  0  0  0  0  0  0
   -3.3327   -8.2216   -6.0018 C   0  0  0  0  0  0  0  0  0  0  0  0
   -1.9360   -8.8828   -6.0012 C   0  0  0  0  0  0  0  0  0  0  0  0
   -1.7347   -9.8353   -7.1961 C   0  0  0  0  0  0  0  0  0  0  0  0
   -2.0557   -9.1211   -8.5320 C   0  0  2  0  0  0  0  0  0  0  0  0
   -3.4641   -8.4677   -8.5113 C   0  0  0  0  0  0  0  0  0  0  0  0
   -0.9828  -10.0876  -10.6556 C   0  0  0  0  0  0  0  0  0  0  0  0
   -1.3355  -11.1666  -11.4740 C   0  0  0  0  0  0  0  0  0  0  0  0
   -2.4793  -11.7315  -10.8563 C   0  0  0  0  0  0  0  0  0  0  0  0
   -3.3011  -12.9118  -11.2705 C   0  0  0  0  0  0  0  0  0  0  0  0
   -3.6842  -13.8719  -10.3292 C   0  0  0  0  0  0  0  0  0  0  0  0
   -4.4616  -14.9600  -10.7156 C   0  0  0  0  0  0  0  0  0  0  0  0
   -4.8692  -15.1040  -12.0418 C   0  0  0  0  0  0  0  0  0  0  0  0
   -4.4856  -14.1387  -12.9857 C   0  0  0  0  0  0  0  0  0  0  0  0
   -3.7085  -13.0506  -12.5998 C   0  0  0  0  0  0  0  0  0  0  0  0
   -6.0915  -16.4365  -13.6193 C   0  0  0  0  0  0  0  0  0  0  0  0
   -5.2897  -17.1419  -14.5214 C   0  0  0  0  0  0  0  0  0  0  0  0
   -5.7383  -17.3774  -15.8215 C   0  0  0  0  0  0  0  0  0  0  0  0
   -6.9911  -16.9121  -16.2228 C   0  0  0  0  0  0  0  0  0  0  0  0
   -7.7967  -16.2128  -15.3234 C   0  0  0  0  0  0  0  0  0  0  0  0
   -7.3499  -15.9763  -14.0223 C   0  0  0  0  0  0  0  0  0  0  0  0
   -0.6145  -11.6820  -12.6160 C   0  0  0  0  0  0  0  0  0  0  0  0
    6.0065    6.8446   -7.3224 C   0  0  0  0  0  0  0  0  0  0  0  0
    6.6039    7.7353   -6.2002 C   0  0  0  0  0  0  0  0  0  0  0  0
    5.7128    7.7743   -8.5297 C   0  0  0  0  0  0  0  0  0  0  0  0
    7.1083    5.8256   -7.7268 C   0  0  0  0  0  0  0  0  0  0  0  0
    6.5506    3.7421   -1.6142 C   0  0  0  0  0  0  0  0  0  0  0  0
   -8.1369  -15.2973  -13.1561 F   0  0  0  0  0  0  0  0  0  0  0  0
   -7.4252  -17.1399  -17.4829 F   0  0  0  0  0  0  0  0  0  0  0  0
    2.0197    4.7444  -11.3289 N   0  0  0  0  0  0  0  0  0  0  0  0
   -3.5109   -7.5910   -7.3279 N   0  0  0  0  0  0  0  0  0  0  0  0
   -1.9363  -10.0582   -9.6613 N   0  0  0  0  0  0  0  0  0  0  0  0
   -2.8235  -11.0562   -9.7809 N   0  0  0  0  0  0  0  0  0  0  0  0
   -0.0482  -10.7561  -13.3956 N   0  0  0  0  0  0  0  0  0  0  0  0
    0.0573   -9.1944  -10.6977 N   0  0  0  0  0  0  0  0  0  0  0  0
    5.9599    4.7890   -2.4341 N   0  0  0  0  0  0  0  0  0  0  0  0
    2.4479    5.4724   -7.8060 N   0  0  0  0  0  0  0  0  0  0  0  0
    1.9717    6.7944  -10.3277 O   0  0  0  0  0  0  0  0  0  0  0  0
   -0.9955    3.4955   -3.2438 O   0  0  0  0  0  0  0  0  0  0  0  0
   -0.4999    1.9997   -0.8520 O   0  0  0  0  0  0  0  0  0  0  0  0
    0.7151   -0.4216    0.0853 O   0  0  0  0  0  0  0  0  0  0  0  0
    4.2648    6.5162   -3.9488 O   0  0  0  0  0  0  0  0  0  0  0  0
   -0.4592   -2.6404   -1.6212 O   0  0  0  0  0  0  0  0  0  0  0  0
   -2.4763   -3.6822   -4.4699 O   0  0  0  0  0  0  0  0  0  0  0  0
   -3.7357   -5.5416   -6.3232 O   0  0  0  0  0  0  0  0  0  0  0  0
   -3.9052   -5.6563   -8.5925 O   0  0  0  0  0  0  0  0  0  0  0  0
   -5.6465  -16.2076  -12.3386 O   0  0  0  0  0  0  0  0  0  0  0  0
   -0.5386  -12.8856  -12.8542 O   0  0  0  0  0  0  0  0  0  0  0  0
    4.4218    4.7701   -8.7066 O   0  0  0  0  0  0  0  0  0  0  0  0
  1 67  1  0
  1 81  1  0
  1 82  2  0
  2 35  1  0
  2 80  1  0
  3 34  1  0
  3 79  1  0
  4  6  1  0
  4 76  1  0
  5  7  1  0
  5 75  1  0
  6 77  1  0
  7 76  1  0
  8  9  1  0
  8 73  1  0
  8 85  2  0
  9 11  1  1
  9 59  1  0
 10 19  2  0
 10 20  1  0
 10 75  1  0
 11 31  1  0
 12 14  1  6
 12 22  1  0
 12 73  1  0
 13 18  2  0
 13 21  1  0
 13 22  1  0
 14 66  1  0
 14 74  2  0
 15 27  1  0
 15 28  2  0
 15 33  1  0
 23 16  1  1
 17 18  1  0
 17 73  1  0
 18 19  1  0
 20 21  2  0
 23 31  1  0
 23 72  1  0
 24 25  1  0
 24 28  1  0
 24 66  1  1
 25 26  1  0
 26 27  1  0
 28 29  1  0
 29 30  2  0
 30 32  1  0
 31 78  2  0
 32 33  2  0
 34 77  1  0
 35 79  1  0
 36 37  1  0
 36 80  1  0
 37 81  1  0
 38 39  1  0
 38 67  1  0
 39 40  1  0
 40 41  1  0
 41 42  1  0
 41 68  1  6
 42 67  1  0
 43 44  2  0
 43 68  1  0
 43 71  1  0
 44 45  1  0
 44 58  1  0
 45 46  1  0
 45 69  2  0
 46 47  2  0
 46 51  1  0
 47 48  1  0
 48 49  2  0
 49 50  1  0
 49 83  1  0
 50 51  2  0
 52 53  2  0
 52 57  1  0
 52 83  1  0
 53 54  1  0
 54 55  2  0
 55 56  1  0
 55 65  1  0
 56 57  2  0
 57 64  1  0
 58 70  1  0
 58 84  2  0
 59 60  1  0
 59 61  1  0
 59 62  1  0
 63 72  1  0
 68 69  1  0
M  END
$$$$
