ligand
     RDKit          3D

 85 92  0  0  1  0  0  0  0  0999 V2000
  -32.3235  -19.7586   11.0397 C   0  0  0  0  0  0  0  0  0  0  0  0
  -29.7619  -21.6326   12.4919 C   0  0  0  0  0  0  0  0  0  0  0  0
  -31.1092  -23.7007   15.1932 C   0  0  0  0  0  0  0  0  0  0  0  0
  -28.7185  -24.2475   18.4941 C   0  0  0  0  0  0  0  0  0  0  0  0
  -28.8820  -26.7167   20.1247 C   0  0  0  0  0  0  0  0  0  0  0  0
  -29.6633  -24.5143   17.3754 C   0  0  0  0  0  0  0  0  0  0  0  0
  -29.9192  -25.6482   19.8957 C   0  0  0  0  0  0  0  0  0  0  0  0
  -24.6050  -31.7948   23.2485 C   0  0  0  0  0  0  0  0  0  0  0  0
  -25.8790  -32.2435   24.0890 C   0  0  1  0  0  0  0  0  0  0  0  0
  -26.9444  -27.7981   19.2649 C   0  0  0  0  0  0  0  0  0  0  0  0
  -25.6481  -33.6934   24.3651 N   0  0  0  0  0  0  0  0  0  0  0  0
  -23.5286  -30.8194   21.2822 C   0  0  2  0  0  0  0  0  0  0  0  0
  -24.9450  -29.7300   19.5320 C   0  0  0  0  0  0  0  0  0  0  0  0
  -22.6483  -29.6452   21.7288 C   0  0  0  0  0  0  0  0  0  0  0  0
  -19.0177  -27.8267   23.1805 C   0  0  0  0  0  0  0  0  0  0  0  0
  -24.0631  -36.4851   23.3366 C   0  0  0  0  0  0  0  0  0  0  0  0
  -26.0546  -30.7143   21.5753 C   0  0  0  0  0  0  0  0  0  0  0  0
  -25.9976  -29.6776   20.4636 C   0  0  0  0  0  0  0  0  0  0  0  0
  -26.9875  -28.7052   20.3161 C   0  0  0  0  0  0  0  0  0  0  0  0
  -25.9082  -27.8525   18.3414 C   0  0  0  0  0  0  0  0  0  0  0  0
  -24.9008  -28.8225   18.4744 C   0  0  0  0  0  0  0  0  0  0  0  0
  -23.8460  -30.7633   19.7450 C   0  0  0  0  0  0  0  0  0  0  0  0
  -25.4590  -36.0767   23.8955 C   0  0  1  0  0  0  0  0  0  0  0  0
  -21.4572  -28.5634   23.6590 C   0  0  2  0  0  0  0  0  0  0  0  0
  -21.8435  -27.0808   23.4406 C   0  0  0  0  0  0  0  0  0  0  0  0
  -20.9653  -26.3317   22.4756 C   0  0  0  0  0  0  0  0  0  0  0  0
  -19.4753  -26.4120   22.8390 C   0  0  0  0  0  0  0  0  0  0  0  0
  -19.9314  -28.8451   23.5543 C   0  0  0  0  0  0  0  0  0  0  0  0
  -19.4127  -30.1027   23.8535 C   0  0  0  0  0  0  0  0  0  0  0  0
  -18.0433  -30.3870   23.7999 C   0  0  0  0  0  0  0  0  0  0  0  0
  -25.7867  -34.6506   23.4129 C   0  0  0  0  0  0  0  0  0  0  0  0
  -17.1510  -29.3892   23.4332 C   0  0  0  0  0  0  0  0  0  0  0  0
  -17.6409  -28.1222   23.1264 C   0  0  0  0  0  0  0  0  0  0  0  0
  -30.1251  -24.7832   15.2432 C   0  0  0  0  0  0  0  0  0  0  0  0
  -30.2501  -22.7545   13.3265 C   0  0  0  0  0  0  0  0  0  0  0  0
  -30.6242  -22.6087   10.5796 C   0  0  0  0  0  0  0  0  0  0  0  0
  -31.8086  -21.9370   10.0847 C   0  0  0  0  0  0  0  0  0  0  0  0
  -34.1138  -18.9522   12.6629 C   0  0  0  0  0  0  0  0  0  0  0  0
  -34.1760  -17.8247   13.6771 C   0  0  0  0  0  0  0  0  0  0  0  0
  -34.2669  -16.4520   13.0148 C   0  0  0  0  0  0  0  0  0  0  0  0
  -33.9716  -16.6591   11.5722 C   0  0  2  0  0  0  0  0  0  0  0  0
  -32.6190  -17.3857   11.5201 C   0  0  0  0  0  0  0  0  0  0  0  0
  -32.9390  -14.6885   10.4863 C   0  0  0  0  0  0  0  0  0  0  0  0
  -33.4161  -13.7363    9.5556 C   0  0  0  0  0  0  0  0  0  0  0  0
  -34.7242  -14.0379    9.3010 C   0  0  0  0  0  0  0  0  0  0  0  0
  -35.6739  -13.3670    8.4114 C   0  0  0  0  0  0  0  0  0  0  0  0
  -35.9179  -12.0343    8.4171 C   0  0  0  0  0  0  0  0  0  0  0  0
  -36.8424  -11.4630    7.5328 C   0  0  0  0  0  0  0  0  0  0  0  0
  -37.5250  -12.2708    6.6349 C   0  0  0  0  0  0  0  0  0  0  0  0
  -37.2777  -13.6234    6.6316 C   0  0  0  0  0  0  0  0  0  0  0  0
  -36.3592  -14.1526    7.5142 C   0  0  0  0  0  0  0  0  0  0  0  0
  -38.2141  -11.5299    4.4020 C   0  0  0  0  0  0  0  0  0  0  0  0
  -39.1093  -12.1336    3.5330 C   0  0  0  0  0  0  0  0  0  0  0  0
  -38.9721  -12.0201    2.1576 C   0  0  0  0  0  0  0  0  0  0  0  0
  -37.9226  -11.2904    1.6565 C   0  0  0  0  0  0  0  0  0  0  0  0
  -37.0138  -10.6791    2.5184 C   0  0  0  0  0  0  0  0  0  0  0  0
  -37.1577  -10.7968    3.8858 C   0  0  0  0  0  0  0  0  0  0  0  0
  -32.5800  -12.6760    8.9840 C   0  0  0  0  0  0  0  0  0  0  0  0
  -26.2124  -31.3912   25.3356 C   0  0  0  0  0  0  0  0  0  0  0  0
  -26.5845  -29.9318   25.0151 C   0  0  0  0  0  0  0  0  0  0  0  0
  -27.3549  -32.0306   26.1529 C   0  0  0  0  0  0  0  0  0  0  0  0
  -24.9709  -31.2958   26.3059 C   0  0  0  0  0  0  0  0  0  0  0  0
  -27.7569  -36.9586   24.0965 C   0  0  0  0  0  0  0  0  0  0  0  0
  -36.2884  -10.2135    4.7167 F   0  0  0  0  0  0  0  0  0  0  0  0
  -37.7875  -11.1690    0.2938 F   0  0  0  0  0  0  0  0  0  0  0  0
  -22.3092  -29.5588   23.0021 N   0  0  0  0  0  0  0  0  0  0  0  0
  -33.0084  -18.7995   11.7720 N   0  0  0  0  0  0  0  0  0  0  0  0
  -33.9586  -15.4972   10.7319 N   0  0  0  0  0  0  0  0  0  0  0  0
  -35.0300  -15.1342   10.0438 N   0  0  0  0  0  0  0  0  0  0  0  0
  -33.0817  -11.7663    8.0358 N   0  0  0  0  0  0  0  0  0  0  0  0
  -31.6193  -14.7046   11.0200 N   0  0  0  0  0  0  0  0  0  0  0  0
  -26.4729  -37.0389   23.3866 N   0  0  0  0  0  0  0  0  0  0  0  0
  -24.7250  -31.1104   22.0894 N   0  0  0  0  0  0  0  0  0  0  0  0
  -22.2742  -28.8172   20.8729 O   0  0  0  0  0  0  0  0  0  0  0  0
  -27.9067  -26.8339   19.1327 O   0  0  0  0  0  0  0  0  0  0  0  0
  -29.3976  -24.3679   19.7287 O   0  0  0  0  0  0  0  0  0  0  0  0
  -29.0540  -24.4353   16.1311 O   0  0  0  0  0  0  0  0  0  0  0  0
  -26.1372  -34.4245   22.2560 O   0  0  0  0  0  0  0  0  0  0  0  0
  -30.5142  -22.4918   14.6625 O   0  0  0  0  0  0  0  0  0  0  0  0
  -29.5581  -22.0558   11.1656 O   0  0  0  0  0  0  0  0  0  0  0  0
  -32.6067  -21.1062   10.8493 O   0  0  0  0  0  0  0  0  0  0  0  0
  -31.2550  -19.3913   10.4101 O   0  0  0  0  0  0  0  0  0  0  0  0
  -38.4511  -11.7121    5.7409 O   0  0  0  0  0  0  0  0  0  0  0  0
  -31.3750  -12.6113    9.3777 O   0  0  0  0  0  0  0  0  0  0  0  0
  -23.5282  -32.1440   23.7369 O   0  0  0  0  0  0  0  0  0  0  0  0
  1 67  1  0
  1 81  1  0
  1 82  2  0
  2 35  1  0
  2 80  1  0
  3 34  1  0
  3 79  1  0
  4  6  1  0
  4 76  1  0
  5  7  1  0
  5 75  1  0
  6 77  1  0
  7 76  1  0
  8  9  1  0
  8 73  1  0
  8 85  2  0
  9 11  1  1
  9 59  1  0
 10 19  2  0
 10 20  1  0
 10 75  1  0
 11 31  1  0
 12 14  1  1
 12 22  1  0
 12 73  1  0
 13 18  2  0
 13 21  1  0
 13 22  1  0
 14 66  1  0
 14 74  2  0
 15 27  1  0
 15 28  2  0
 15 33  1  0
 23 16  1  6
 17 18  1  0
 17 73  1  0
 18 19  1  0
 20 21  2  0
 23 31  1  0
 23 72  1  0
 24 25  1  0
 24 28  1  0
 24 66  1  6
 25 26  1  0
 26 27  1  0
 28 29  1  0
 29 30  2  0
 30 32  1  0
 31 78  2  0
 32 33  2  0
 34 77  1  0
 35 79  1  0
 36 37  1  0
 36 80  1  0
 37 81  1  0
 38 39  1  0
 38 67  1  0
 39 40  1  0
 40 41  1  0
 41 42  1  0
 41 68  1  6
 42 67  1  0
 43 44  2  0
 43 68  1  0
 43 71  1  0
 44 45  1  0
 44 58  1  0
 45 46  1  0
 45 69  2  0
 46 47  2  0
 46 51  1  0
 47 48  1  0
 48 49  2  0
 49 50  1  0
 49 83  1  0
 50 51  2  0
 52 53  2  0
 52 57  1  0
 52 83  1  0
 53 54  1  0
 54 55  2  0
 55 56  1  0
 55 65  1  0
 56 57  2  0
 57 64  1  0
 58 70  1  0
 58 84  2  0
 59 60  1  0
 59 61  1  0
 59 62  1  0
 63 72  1  0
 68 69  1  0
M  END
$$$$
